/*--------------------------------*- C++ -*----------------------------------*\
| =========                 |                                                 |
| \\      /  F ield         | OpenFOAM: The Open Source CFD Toolbox           |
|  \\    /   O peration     | Version:  v2512                                 |
|   \\  /    A nd           | Website:  www.openfoam.com                      |
|    \\/     M anipulation  |                                                 |
\*---------------------------------------------------------------------------*/
FoamFile
{
    version     2.0;
    format      ascii;
    class       dictionary;
    location    "constant/turbineProperties";
    object      DEC_4_2MW_155;
}
// * * * * * * * * * * * * * * * * * * * * * * * * * * * * * * * * * * * * * //

// Basic turbine geometry
TipRad          77.5;       // Rotor tip radius [m]
HubRad          1.5;        // Hub radius [m]
TowerHt         100.0;       // Tower height [m]
Twr2Shft        0;        // Tower top to shaft centerline [m]
OverHang        0;        // Overhang distance [m]
UndSling        0;        // Undersling [m]
ShftTilt        0;          // Shaft tilt angle [deg]

// Format: (windSpeed[m/s]  Power[kW]  Ct)
PowerCtData
(
    (3      91     1.1332)
    (3.5    190    0.9833)
    (4      309    0.871)
    (4.5    449    0.812)
    (5      620    0.812)
    (5.5    830    0.812)
    (6      1082    0.812)
    (6.5    1370    0.812)
    (7      1709    0.812)
    (7.5    2093    0.812)
    (8      2507    0.812)
    (8.5    2928    0.7649)
    (9      3316    0.7202)
    (9.5    3669    0.6773)
    (10     3887    0.5604)
    (10.5   4013    0.4591)
    (11     4098    0.3871)
    (11.5   4155    0.3321)
    (12     4182    0.2884)
    (12.5   4197    0.2527)
    (13     4200    0.2233)
    (13.5   4200    0.1986)
    (14     4200    0.1777)
    (14.5   4200    0.1599)
    (15     4200    0.1446)
    (15.5   4200    0.1312)
    (16     4200    0.1197)
    (16.5   4200    0.1095)
    (17     4200    0.1006)
    (17.5   4200    0.0926)
    (18     4200    0.0856)
    (18.5   4200    0.0793)
    (19     4200    0.0737)
    (19.5   4200    0.0686)
    (20     4200    0.0641)
);

// ************************************************************************* //
