/*--------------------------------*- C++ -*----------------------------------*\
| =========                 |                                                 |
| \\      /  F ield         | OpenFOAM: The Open Source CFD Toolbox           |
|  \\    /   O peration     | Version:  v2512                                 |
|   \\  /    A nd           | Website:  www.openfoam.com                      |
|    \\/     M anipulation  |                                                 |
\*---------------------------------------------------------------------------*/
FoamFile
{
    version     2.0;
    format      ascii;
    class       dictionary;
    object      fvSchemes;
}
// * * * * * * * * * * * * * * * * * * * * * * * * * * * * * * * * * * * * * //

ddtSchemes
{
    default             steadyState;
}

gradSchemes
{
    default         Gauss linear;

    limited         cellMDLimited Gauss linear 1;
    grad(U)         $limited;
    grad(k)         $limited;
    grad(epsilon)     $limited;
    grad(p)         $limited;
}

divSchemes
{
    default             none;

    div(phi,U)          bounded Gauss linearUpwind limited;

    turbulence          bounded Gauss linearUpwind limited;
    div(phi,epsilon)    $turbulence;
    div(phi,k)          $turbulence;

    div((nuEff*dev2(T(grad(U)))))    Gauss linear;
}

laplacianSchemes
{
    default         Gauss linear limited corrected 0.333;
}

interpolationSchemes
{
    default             linear;
}

snGradSchemes
{
    default         limited corrected 0.333;
}


fluxRequired
{
    default         no;
    p               ;
}


// ************************************************************************* //
